Version 4
SHEET 1 1072 680
WIRE 0 -352 0 -400
WIRE -48 -288 -96 -288
WIRE 0 -240 0 -288
WIRE -400 -128 -400 -176
WIRE 0 -128 0 -160
WIRE -400 -96 -400 -128
WIRE 288 0 208 0
WIRE 576 0 512 0
WIRE -400 32 -400 -16
WIRE -400 32 -544 32
WIRE -256 32 -400 32
WIRE 288 64 208 64
WIRE 576 64 512 64
WIRE 288 128 224 128
WIRE 576 128 512 128
WIRE -544 176 -544 96
WIRE -416 176 -464 176
WIRE -352 176 -416 176
WIRE -256 176 -256 96
WIRE -256 176 -272 176
WIRE 288 192 208 192
WIRE 560 192 512 192
WIRE -416 256 -416 176
FLAG -400 -256 0
FLAG -416 320 0
FLAG 208 0 0
FLAG 624 192 0
FLAG -400 -128 VCC
FLAG -416 176 POT
FLAG -400 32 DIS
FLAG 576 0 VCC
IOPIN 576 0 In
FLAG 208 192 VCC
IOPIN 208 192 In
FLAG 208 64 POT
IOPIN 208 64 In
FLAG 576 128 POT
IOPIN 576 128 In
FLAG 576 64 DIS
IOPIN 576 64 In
FLAG 224 128 OUT
IOPIN 224 128 Out
FLAG 0 -400 VCC
IOPIN 0 -400 In
FLAG 0 -128 0
FLAG -96 -288 OUT
IOPIN -96 -288 In
SYMBOL Misc\\NE555 400 96 R0
SYMATTR InstName U1
SYMBOL voltage -400 -160 R180
WINDOW 0 24 96 Left 2
WINDOW 3 24 16 Left 2
WINDOW 123 0 0 Left 0
WINDOW 39 0 0 Left 0
SYMATTR InstName V1
SYMATTR Value 9
SYMBOL res -416 -112 R0
SYMATTR InstName R1
SYMATTR Value 120
SYMBOL res -256 160 R90
WINDOW 0 0 56 VBottom 2
WINDOW 3 32 56 VTop 2
SYMATTR InstName R2
SYMATTR Value 1
SYMBOL res -448 160 R90
WINDOW 0 0 56 VBottom 2
WINDOW 3 32 56 VTop 2
SYMATTR InstName R3
SYMATTR Value 5k
SYMBOL diode -272 32 R0
SYMATTR InstName D1
SYMBOL diode -528 96 R180
WINDOW 0 24 64 Left 2
WINDOW 3 24 0 Left 2
SYMATTR InstName D2
SYMBOL cap -432 256 R0
SYMATTR InstName C1
SYMATTR Value 1µ
SYMBOL cap 624 176 R90
WINDOW 0 0 32 VBottom 2
WINDOW 3 32 32 VTop 2
SYMATTR InstName C2
SYMATTR Value 100n
SYMBOL Misc\\TRIAC -32 -352 R0
SYMATTR InstName U2
SYMATTR Value BTA12-600B
SYMATTR SpiceModel BTA12-600B
SYMBOL res -16 -256 R0
SYMATTR InstName R4
SYMATTR Value 440
TEXT 184 288 Left 2 !.lib C:\\Users\\user\\Downloads\\Libraries\\st_standard_snubberless_triacs.lib
TEXT -586 344 Left 2 !.tran 20m
